          36
 ANGLE   12.341840469775395        4.3690414292158177        7.3094087936852352        90.002368257563603        105.13586993588758        100.18954615300827       -679.76222820614180     
 O     5.7038547665752253       -2.0264395650493889      -0.62250867744465777     
 H     5.9293534546413493       -1.9874123005274293       -1.5519488607294076     
 H     6.5330555148161471       -1.8780217846245044      -0.16794281690248458     
 O     3.8184150901305576      -0.14519451623156024       -8.8768486271270236E-002
 H     4.4987720747675812      -0.79268243681841377      -0.27344551827506081     
 H     4.2337443610727341       0.69783657293235657      -0.27051561665230328     
 O     6.5036376425141773       -1.8871969555655705       -3.2163202074310857     
 H     6.3080961291881223       -2.6921859311292158       -3.6958909590279165     
 H     6.0360858630160497       -1.2029226149117038       -3.6952730236988782     
 O    0.55432646640694372      -0.63744048121751107        2.7036865878700915     
 H    0.30481089564011143       -1.4698506248625156        2.3023548389368620     
 H    0.27892003398926135      -0.71914581613565631        3.6167623652450462     
 O     1.6941339243973608      -0.48056794735543451       -1.7415475819869797     
 H     1.3286720755798775       -1.3334641381861605       -1.5065208500492178     
 H     2.4444850641655900      -0.37175208116918079       -1.1572838450370864     
 O    -4.1492874575160510       -1.5834193095553610       0.40808787998609797     
 H    -3.6856695459833655       -2.2699235356266394       0.88767334650103080     
 H    -3.9493070788494293      -0.77915526153102332       0.88704406713045503     
 O    -3.5649298120959654       0.74133705436607844        1.6823867540740918     
 H    -2.6294036376236711       0.93965897169942925        1.6412645704932387     
 H    -3.7621839244711852       0.70761896811394798        2.6184346939845207     
 O   -0.13075387809252975        1.4109486450622004       -1.0667306731808206     
 H   -0.87204692826548369        1.2516214614321950       -1.6509663296772459     
 H    0.50883200091940384       0.73868607707234124       -1.3017302115808185     
 O   -0.91637605403260092        1.3177458233245467        1.5354934803734495     
 H   -0.39259291159467702       0.62431792176631018        1.9367923777534373     
 H   -0.62972818018107546        1.3371347693828071       0.62242781724338214     
 O    -2.2388836053692285       0.98542277684278512       -2.7194454911964905     
 H    -2.9217556310781130        1.6310978365701838       -2.5377277051922995     
 H    -2.6512298903662677       0.14156697368335269       -2.5347572004921535     
 O    -3.3512134238515494       -1.4346691586584295       -2.1857243371925938     
 H    -4.1801301869224385       -1.5846726672732907       -2.6402876301489320     
 H    -3.5761377299284911       -1.4768703524959397       -1.2562836689547043     
 O     3.2377407962930227      -0.25481136593574250        2.5568695959814129     
 H     2.2917393898050245      -0.39489708808945478        2.5979691017132533     
 H     3.4344176467478911      -0.21777523796014189        1.6208255896869823     
